Circuit: * C:\Users\André\Desktop\Projects\7-Segment-RGB-Clock\Power_Supply\ltspice\Draft1.asc

Direct Newton iteration for .op point succeeded.

Date: Mon Jul 20 13:05:10 2020
Total elapsed time: 0.140 seconds.

tnom = 27
temp = 27
method = modified trap
totiter = 6463
traniter = 6458
tranpoints = 2334
accept = 2101
rejected = 233
matrix size = 14
fillins = 0
solver = Normal
Matrix Compiler1: 384 bytes object code size  0.1/0.1/[0.0]
Matrix Compiler2: 770 bytes object code size  0.0/0.1/[0.0]

