Circuit: * C:\Users\Ondre\Dropbox\Kicad-Projects\7-Segment-RGB-Clock\Power_Supply\ltspice\trafo.asc

Direct Newton iteration for .op point succeeded.

Date: Sun Jun 28 15:47:56 2020
Total elapsed time: 0.110 seconds.

tnom = 27
temp = 27
method = modified trap
totiter = 15755
traniter = 15745
tranpoints = 5518
accept = 3899
rejected = 1619
matrix size = 7
fillins = 4
solver = Normal
Matrix Compiler1: 544 bytes object code size  0.1/0.1/[0.1]
Matrix Compiler2: off  [0.1]/0.1/0.1

