Circuit: * C:\Users\André\Desktop\Projects\7-Segment-RGB-Clock\Power_Supply\ltspice\Draft1.asc

WARNING: Less than two connections to node N002.  This node is used by L2.
.OP point found by inspection.

Date: Thu Jun 11 04:23:26 2020
Total elapsed time: 0.015 seconds.

tnom = 27
temp = 27
method = modified trap
totiter = 2100
traniter = 2100
tranpoints = 1051
accept = 1050
rejected = 1
matrix size = 4
fillins = 0
solver = Normal
Matrix Compiler1: 154 bytes object code size  0.0/0.1/[0.0]
Matrix Compiler2: 262 bytes object code size  0.0/0.0/[0.0]

