Circuit: * C:\Users\Andre\Dropbox\Kicad-Projects\7-Segment-RGB-Clock\Power_Supply\ltspice\Draft1.asc

Direct Newton iteration for .op point succeeded.

Date: Wed May 19 18:05:51 2021
Total elapsed time: 0.180 seconds.

tnom = 27
temp = 27
method = modified trap
totiter = 2115
traniter = 2112
tranpoints = 1057
accept = 1054
rejected = 3
matrix size = 4
fillins = 0
solver = Normal
Matrix Compiler1:       8 opcodes  0.1/[0.1]/0.1
Matrix Compiler2: 236 bytes object code size  0.1/0.1/[0.1]

