Circuit: * \\effshare\akuellenberg\Trafo\trafo.asc

Direct Newton iteration for .op point succeeded.

Date: Wed Jun 10 05:24:36 2020
Total elapsed time: 0.068 seconds.

tnom = 27
temp = 27
method = modified trap
totiter = 7853
traniter = 7843
tranpoints = 2219
accept = 1602
rejected = 617
matrix size = 9
fillins = 7
solver = Normal
Matrix Compiler1: 702 bytes object code size  0.1/0.1/[0.0]
Matrix Compiler2: 763 bytes object code size  0.1/0.1/[0.1]

