Circuit: * C:\Users\André\Desktop\Projects\7-Segment-RGB-Clock\Power_Supply\ltspice\trafo.asc

Direct Newton iteration for .op point succeeded.

Date: Mon Jun 22 18:04:55 2020
Total elapsed time: 0.203 seconds.

tnom = 27
temp = 27
method = modified trap
totiter = 17597
traniter = 17587
tranpoints = 5913
accept = 4126
rejected = 1787
matrix size = 9
fillins = 7
solver = Normal
Matrix Compiler1: 702 bytes object code size  0.1/0.0/[0.0]
Matrix Compiler2: 763 bytes object code size  0.1/0.1/[0.1]

